
 &NAMLST
   TEST=FALSE, DOVTMP= TRUE
 /

     THESE CARDS VALID FOR GMAO/MERRA VERSION OF CQCBUFR
     CURRENT GMAO CONFIGURATION (6/15/07): DOVTMP true, RADCOR true
     PROPOSED MERRA CONFIG: DOVTMP false, RADCOR false


